dss/13Bus/load_shift_map_and_objs.dss
! LOAD DEFINITIONS For load shifting 13 bus ids map a 1-1 with mininet declared configs
! half loads on 
New Load.1 Bus1=675.1  Phases=1 Conn=Wye  Model=1 kV=2.4  kW=1  kvar=1 
New Load.2 Bus1=692.1  Phases=1 Conn=Wye  Model=1 kV=2.4  kW=1  kvar=1 
New Load.3 Bus1=692.3  Phases=1 Conn=Wye  Model=1 kV=2.4  kW=1  kvar=1 
New Load.4 Bus1=675.1  Phases=1 Conn=Wye  Model=1 kV=2.4  kW=1  kvar=1 
New Load.5 Bus1=692.1  Phases=1 Conn=Wye  Model=1 kV=2.4  kW=1  kvar=1 
New Load.6 Bus1=692.3  Phases=1 Conn=Wye  Model=1 kV=2.4  kW=1  kvar=1 
New Load.7 Bus1=675.1  Phases=1 Conn=Wye  Model=1 kV=2.4  kW=1  kvar=1 
New Load.8 Bus1=692.1  Phases=1 Conn=Wye  Model=1 kV=2.4  kW=1  kvar=1 
New Load.9 Bus1=692.3  Phases=1 Conn=Wye  Model=1 kV=2.4  kW=1  kvar=1 
New Load.10 Bus1=652.1  Phases=1 Conn=Wye  Model=1 kV=2.4  kW=1  kvar=1 
New Load.11 Bus1=611.3  Phases=1 Conn=Wye  Model=1 kV=2.4  kW=1  kvar=1 
New Load.12 Bus1=675.1  Phases=1 Conn=Wye  Model=1 kV=2.4  kW=1  kvar=1 
New Load.13 Bus1=675.1  Phases=1 Conn=Wye  Model=1 kV=2.4  kW=1  kvar=1 
New Load.14 Bus1=675.1  Phases=1 Conn=Wye  Model=1 kV=2.4  kW=1  kvar=1 
New Load.15 Bus1=675.1  Phases=1 Conn=Wye  Model=1 kV=2.4  kW=1  kvar=1 
New Load.16 Bus1=675.1  Phases=1 Conn=Wye  Model=1 kV=2.4  kW=1  kvar=1 
New Load.17 Bus1=675.1  Phases=1 Conn=Wye  Model=1 kV=2.4  kW=1  kvar=1 
New Load.18 Bus1=675.1  Phases=1 Conn=Wye  Model=1 kV=2.4  kW=1  kvar=1 
New Load.19 Bus1=692.1  Phases=1 Conn=Wye  Model=1 kV=2.4  kW=1  kvar=1 
New Load.20 Bus1=692.1  Phases=1 Conn=Wye  Model=1 kV=2.4  kW=1  kvar=1 
New Load.21 Bus1=692.1  Phases=1 Conn=Wye  Model=1 kV=2.4  kW=1  kvar=1 
New Load.22 Bus1=692.3  Phases=1 Conn=Wye  Model=1 kV=2.4  kW=1  kvar=1 
New Load.23 Bus1=692.3  Phases=1 Conn=Wye  Model=1 kV=2.4  kW=1  kvar=1 
New Load.24 Bus1=692.3  Phases=1 Conn=Wye  Model=1 kV=2.4  kW=1  kvar=1 
New Load.25 Bus1=652.1  Phases=1 Conn=Wye  Model=1 kV=2.4  kW=1  kvar=1 
New Load.26 Bus1=652.1  Phases=1 Conn=Wye  Model=1 kV=2.4  kW=1  kvar=1 
New Load.27 Bus1=652.1  Phases=1 Conn=Wye  Model=1 kV=2.4  kW=1  kvar=1 
New Load.28 Bus1=611.3  Phases=1 Conn=Wye  Model=1 kV=2.4  kW=1  kvar=1 
New Load.29 Bus1=611.3  Phases=1 Conn=Wye  Model=1 kV=2.4  kW=1  kvar=1 
New Load.30 Bus1=675.1  Phases=1 Conn=Wye  Model=1 kV=2.4  kW=1  kvar=1 
New Load.31 Bus1=675.1  Phases=1 Conn=Wye  Model=1 kV=2.4  kW=1  kvar=1 
New Load.32 Bus1=675.1  Phases=1 Conn=Wye  Model=1 kV=2.4  kW=1  kvar=1 
New Load.33 Bus1=675.1  Phases=1 Conn=Wye  Model=1 kV=2.4  kW=1  kvar=1 
New Load.34 Bus1=675.1  Phases=1 Conn=Wye  Model=1 kV=2.4  kW=1  kvar=1 
New Load.35 Bus1=675.1  Phases=1 Conn=Wye  Model=1 kV=2.4  kW=1  kvar=1 
New Load.36 Bus1=675.1  Phases=1 Conn=Wye  Model=1 kV=2.4  kW=1  kvar=1 
New Load.37 Bus1=692.1  Phases=1 Conn=Wye  Model=1 kV=2.4  kW=1  kvar=1 
New Load.38 Bus1=692.1  Phases=1 Conn=Wye  Model=1 kV=2.4  kW=1  kvar=1 
New Load.39 Bus1=692.1  Phases=1 Conn=Wye  Model=1 kV=2.4  kW=1  kvar=1 
New Load.40 Bus1=692.3  Phases=1 Conn=Wye  Model=1 kV=2.4  kW=1  kvar=1 
New Load.41 Bus1=692.3  Phases=1 Conn=Wye  Model=1 kV=2.4  kW=1  kvar=1 
New Load.42 Bus1=692.3  Phases=1 Conn=Wye  Model=1 kV=2.4  kW=1  kvar=1 
New Load.43 Bus1=652.1  Phases=1 Conn=Wye  Model=1 kV=2.4  kW=1  kvar=1 
New Load.44 Bus1=652.1  Phases=1 Conn=Wye  Model=1 kV=2.4  kW=1  kvar=1 
New Load.45 Bus1=652.1  Phases=1 Conn=Wye  Model=1 kV=2.4  kW=1  kvar=1 
New Load.46 Bus1=611.3  Phases=1 Conn=Wye  Model=1 kV=2.4  kW=1  kvar=1 
New Load.47 Bus1=611.3  Phases=1 Conn=Wye  Model=1 kV=2.4  kW=1  kvar=1 
New Load.48 Bus1=675.1  Phases=1 Conn=Wye  Model=1 kV=2.4  kW=1  kvar=1 
New Load.49 Bus1=675.1  Phases=1 Conn=Wye  Model=1 kV=2.4  kW=1  kvar=1 
New Load.50 Bus1=675.1  Phases=1 Conn=Wye  Model=1 kV=2.4  kW=1  kvar=1 
New Load.51 Bus1=675.1  Phases=1 Conn=Wye  Model=1 kV=2.4  kW=1  kvar=1 
New Load.52 Bus1=675.1  Phases=1 Conn=Wye  Model=1 kV=2.4  kW=1  kvar=1 
New Load.53 Bus1=675.1  Phases=1 Conn=Wye  Model=1 kV=2.4  kW=1  kvar=1 
New Load.54 Bus1=675.1  Phases=1 Conn=Wye  Model=1 kV=2.4  kW=1  kvar=1 
New Load.55 Bus1=692.1  Phases=1 Conn=Wye  Model=1 kV=2.4  kW=1  kvar=1 
New Load.56 Bus1=692.1  Phases=1 Conn=Wye  Model=1 kV=2.4  kW=1  kvar=1 
New Load.57 Bus1=692.1  Phases=1 Conn=Wye  Model=1 kV=2.4  kW=1  kvar=1 
New Load.58 Bus1=692.3  Phases=1 Conn=Wye  Model=1 kV=2.4  kW=1  kvar=1 
New Load.59 Bus1=692.3  Phases=1 Conn=Wye  Model=1 kV=2.4  kW=1  kvar=1 
New Load.60 Bus1=692.3  Phases=1 Conn=Wye  Model=1 kV=2.4  kW=1  kvar=1 
New Load.61 Bus1=652.1  Phases=1 Conn=Wye  Model=1 kV=2.4  kW=1  kvar=1 
New Load.62 Bus1=652.1  Phases=1 Conn=Wye  Model=1 kV=2.4  kW=1  kvar=1 
New Load.63 Bus1=652.1  Phases=1 Conn=Wye  Model=1 kV=2.4  kW=1  kvar=1 
New Load.64 Bus1=611.3  Phases=1 Conn=Wye  Model=1 kV=2.4  kW=1  kvar=1 
New Load.65 Bus1=611.3  Phases=1 Conn=Wye  Model=1 kV=2.4  kW=1  kvar=1 
New Load.66 Bus1=675.1  Phases=1 Conn=Wye  Model=1 kV=2.4  kW=1  kvar=1 
New Load.67 Bus1=675.1  Phases=1 Conn=Wye  Model=1 kV=2.4  kW=1  kvar=1 
New Load.68 Bus1=675.1  Phases=1 Conn=Wye  Model=1 kV=2.4  kW=1  kvar=1 
New Load.69 Bus1=675.1  Phases=1 Conn=Wye  Model=1 kV=2.4  kW=1  kvar=1 
New Load.70 Bus1=675.1  Phases=1 Conn=Wye  Model=1 kV=2.4  kW=1  kvar=1 
New Load.71 Bus1=675.1  Phases=1 Conn=Wye  Model=1 kV=2.4  kW=1  kvar=1 
New Load.72 Bus1=675.1  Phases=1 Conn=Wye  Model=1 kV=2.4  kW=1  kvar=1 
New Load.73 Bus1=692.1  Phases=1 Conn=Wye  Model=1 kV=2.4  kW=1  kvar=1 
New Load.74 Bus1=692.1  Phases=1 Conn=Wye  Model=1 kV=2.4  kW=1  kvar=1 
New Load.75 Bus1=692.1  Phases=1 Conn=Wye  Model=1 kV=2.4  kW=1  kvar=1 
New Load.76 Bus1=692.3  Phases=1 Conn=Wye  Model=1 kV=2.4  kW=1  kvar=1 
New Load.77 Bus1=692.3  Phases=1 Conn=Wye  Model=1 kV=2.4  kW=1  kvar=1 
New Load.78 Bus1=692.3  Phases=1 Conn=Wye  Model=1 kV=2.4  kW=1  kvar=1 
New Load.79 Bus1=652.1  Phases=1 Conn=Wye  Model=1 kV=2.4  kW=1  kvar=1 
New Load.80 Bus1=652.1  Phases=1 Conn=Wye  Model=1 kV=2.4  kW=1  kvar=1 
New Load.81 Bus1=652.1  Phases=1 Conn=Wye  Model=1 kV=2.4  kW=1  kvar=1 
New Load.82 Bus1=611.3  Phases=1 Conn=Wye  Model=1 kV=2.4  kW=1  kvar=1 
New Load.83 Bus1=611.3  Phases=1 Conn=Wye  Model=1 kV=2.4  kW=1  kvar=1 
New Load.84 Bus1=675.1  Phases=1 Conn=Wye  Model=1 kV=2.4  kW=1  kvar=1 
New Load.85 Bus1=675.1  Phases=1 Conn=Wye  Model=1 kV=2.4  kW=1  kvar=1 
New Load.86 Bus1=675.1  Phases=1 Conn=Wye  Model=1 kV=2.4  kW=1  kvar=1 
New Load.87 Bus1=675.1  Phases=1 Conn=Wye  Model=1 kV=2.4  kW=1  kvar=1 
New Load.88 Bus1=675.1  Phases=1 Conn=Wye  Model=1 kV=2.4  kW=1  kvar=1 
New Load.89 Bus1=675.1  Phases=1 Conn=Wye  Model=1 kV=2.4  kW=1  kvar=1 
New Load.90 Bus1=675.1  Phases=1 Conn=Wye  Model=1 kV=2.4  kW=1  kvar=1 
New Load.91 Bus1=692.1  Phases=1 Conn=Wye  Model=1 kV=2.4  kW=1  kvar=1 
New Load.92 Bus1=692.1  Phases=1 Conn=Wye  Model=1 kV=2.4  kW=1  kvar=1 
New Load.93 Bus1=692.1  Phases=1 Conn=Wye  Model=1 kV=2.4  kW=1  kvar=1 
New Load.94 Bus1=692.3  Phases=1 Conn=Wye  Model=1 kV=2.4  kW=1  kvar=1 
New Load.95 Bus1=692.3  Phases=1 Conn=Wye  Model=1 kV=2.4  kW=1  kvar=1 
New Load.96 Bus1=692.3  Phases=1 Conn=Wye  Model=1 kV=2.4  kW=1  kvar=1 
New Load.97 Bus1=652.1  Phases=1 Conn=Wye  Model=1 kV=2.4  kW=1  kvar=1 
New Load.98 Bus1=652.1  Phases=1 Conn=Wye  Model=1 kV=2.4  kW=1  kvar=1 
New Load.99 Bus1=652.1  Phases=1 Conn=Wye  Model=1 kV=2.4  kW=1  kvar=1 
New Load.100 Bus1=611.3  Phases=1 Conn=Wye  Model=1 kV=2.4  kW=1  kvar=1 
New Load.101 Bus1=611.3  Phases=1 Conn=Wye  Model=1 kV=2.4  kW=1  kvar=1 
New Load.102 Bus1=675.1  Phases=1 Conn=Wye  Model=1 kV=2.4  kW=1  kvar=1 
New Load.103 Bus1=675.1  Phases=1 Conn=Wye  Model=1 kV=2.4  kW=1  kvar=1 
New Load.104 Bus1=675.1  Phases=1 Conn=Wye  Model=1 kV=2.4  kW=1  kvar=1 
New Load.105 Bus1=675.1  Phases=1 Conn=Wye  Model=1 kV=2.4  kW=1  kvar=1 
New Load.106 Bus1=675.1  Phases=1 Conn=Wye  Model=1 kV=2.4  kW=1  kvar=1 
New Load.107 Bus1=675.1  Phases=1 Conn=Wye  Model=1 kV=2.4  kW=1  kvar=1 
New Load.108 Bus1=675.1  Phases=1 Conn=Wye  Model=1 kV=2.4  kW=1  kvar=1 
New Load.109 Bus1=692.1  Phases=1 Conn=Wye  Model=1 kV=2.4  kW=1  kvar=1 
New Load.110 Bus1=692.1  Phases=1 Conn=Wye  Model=1 kV=2.4  kW=1  kvar=1 
New Load.111 Bus1=692.1  Phases=1 Conn=Wye  Model=1 kV=2.4  kW=1  kvar=1 
New Load.112 Bus1=692.3  Phases=1 Conn=Wye  Model=1 kV=2.4  kW=1  kvar=1 
New Load.113 Bus1=692.3  Phases=1 Conn=Wye  Model=1 kV=2.4  kW=1  kvar=1 
New Load.114 Bus1=692.3  Phases=1 Conn=Wye  Model=1 kV=2.4  kW=1  kvar=1 
New Load.115 Bus1=652.1  Phases=1 Conn=Wye  Model=1 kV=2.4  kW=1  kvar=1 
New Load.116 Bus1=652.1  Phases=1 Conn=Wye  Model=1 kV=2.4  kW=1  kvar=1 
New Load.117 Bus1=652.1  Phases=1 Conn=Wye  Model=1 kV=2.4  kW=1  kvar=1 
New Load.118 Bus1=611.3  Phases=1 Conn=Wye  Model=1 kV=2.4  kW=1  kvar=1 
New Load.119 Bus1=611.3  Phases=1 Conn=Wye  Model=1 kV=2.4  kW=1  kvar=1 
New Load.120 Bus1=675.1  Phases=1 Conn=Wye  Model=1 kV=2.4  kW=1  kvar=1 
New Load.121 Bus1=675.1  Phases=1 Conn=Wye  Model=1 kV=2.4  kW=1  kvar=1 
New Load.122 Bus1=675.1  Phases=1 Conn=Wye  Model=1 kV=2.4  kW=1  kvar=1 
New Load.123 Bus1=675.1  Phases=1 Conn=Wye  Model=1 kV=2.4  kW=1  kvar=1 
New Load.124 Bus1=692.1  Phases=1 Conn=Wye  Model=1 kV=2.4  kW=1  kvar=1 
New Load.125 Bus1=692.3  Phases=1 Conn=Wye  Model=1 kV=2.4  kW=1  kvar=1 
New Load.126 Bus1=652.1  Phases=1 Conn=Wye  Model=1 kV=2.4  kW=1  kvar=1 
New Load.127 Bus1=611.3  Phases=1 Conn=Wye  Model=1 kV=2.4  kW=1  kvar=1 
New Load.128 Bus1=675.1  Phases=1 Conn=Wye  Model=1 kV=2.4  kW=1  kvar=1 
New Load.129 Bus1=675.1  Phases=1 Conn=Wye  Model=1 kV=2.4  kW=1  kvar=1 
New Load.130 Bus1=692.1  Phases=1 Conn=Wye  Model=1 kV=2.4  kW=1  kvar=1 

